
---------- Begin Simulation Statistics ----------
sim_seconds                                  0.044812                       # Number of seconds simulated
sim_ticks                                 44811817500                       # Number of ticks simulated
final_tick                                44811817500                       # Number of ticks from beginning of simulation (restored from checkpoints and never reset)
sim_freq                                 1000000000000                       # Frequency of simulated ticks
host_inst_rate                                 174020                       # Simulator instruction rate (inst/s)
host_op_rate                                   174020                       # Simulator op (including micro ops) rate (op/s)
host_tick_rate                              182133047                       # Simulator tick rate (ticks/s)
host_mem_usage                                 185096                       # Number of bytes of host memory used
host_seconds                                   246.04                       # Real time elapsed on the host
sim_insts                                    42815689                       # Number of instructions simulated
sim_ops                                      42815689                       # Number of ops (including micro ops) simulated
system.voltage_domain.voltage                       1                       # Voltage in Volts
system.clk_domain.clock                          1000                       # Clock period in ticks
system.mem_ctrls.pwrStateResidencyTicks::UNDEFINED  44811817500                       # Cumulative time (in ticks) in various power states
system.mem_ctrls.bytes_read::.cpu.inst        4266624                       # Number of bytes read from this memory
system.mem_ctrls.bytes_read::.cpu.data         113408                       # Number of bytes read from this memory
system.mem_ctrls.bytes_read::total            4380032                       # Number of bytes read from this memory
system.mem_ctrls.bytes_inst_read::.cpu.inst      4266624                       # Number of instructions bytes read from this memory
system.mem_ctrls.bytes_inst_read::total       4266624                       # Number of instructions bytes read from this memory
system.mem_ctrls.bytes_written::.writebacks        10432                       # Number of bytes written to this memory
system.mem_ctrls.bytes_written::total           10432                       # Number of bytes written to this memory
system.mem_ctrls.num_reads::.cpu.inst           66666                       # Number of read requests responded to by this memory
system.mem_ctrls.num_reads::.cpu.data            1772                       # Number of read requests responded to by this memory
system.mem_ctrls.num_reads::total               68438                       # Number of read requests responded to by this memory
system.mem_ctrls.num_writes::.writebacks          163                       # Number of write requests responded to by this memory
system.mem_ctrls.num_writes::total                163                       # Number of write requests responded to by this memory
system.mem_ctrls.bw_read::.cpu.inst          95212027                       # Total read bandwidth from this memory (bytes/s)
system.mem_ctrls.bw_read::.cpu.data           2530761                       # Total read bandwidth from this memory (bytes/s)
system.mem_ctrls.bw_read::total              97742788                       # Total read bandwidth from this memory (bytes/s)
system.mem_ctrls.bw_inst_read::.cpu.inst     95212027                       # Instruction read bandwidth from this memory (bytes/s)
system.mem_ctrls.bw_inst_read::total         95212027                       # Instruction read bandwidth from this memory (bytes/s)
system.mem_ctrls.bw_write::.writebacks         232796                       # Write bandwidth from this memory (bytes/s)
system.mem_ctrls.bw_write::total               232796                       # Write bandwidth from this memory (bytes/s)
system.mem_ctrls.bw_total::.writebacks         232796                       # Total bandwidth to/from this memory (bytes/s)
system.mem_ctrls.bw_total::.cpu.inst         95212027                       # Total bandwidth to/from this memory (bytes/s)
system.mem_ctrls.bw_total::.cpu.data          2530761                       # Total bandwidth to/from this memory (bytes/s)
system.mem_ctrls.bw_total::total             97975584                       # Total bandwidth to/from this memory (bytes/s)
system.mem_ctrls.avgPriority_.writebacks::samples      2758.00                       # Average QoS priority value for accepted requests
system.mem_ctrls.avgPriority_.cpu.inst::samples      1923.00                       # Average QoS priority value for accepted requests
system.mem_ctrls.avgPriority_.cpu.data::samples      1772.00                       # Average QoS priority value for accepted requests
system.mem_ctrls.priorityMinLatency      0.000000018750                       # per QoS priority minimum request to response latency (s)
system.mem_ctrls.priorityMaxLatency      0.024025924500                       # per QoS priority maximum request to response latency (s)
system.mem_ctrls.numReadWriteTurnArounds          156                       # Number of turnarounds from READ to WRITE
system.mem_ctrls.numWriteReadTurnArounds          156                       # Number of turnarounds from WRITE to READ
system.mem_ctrls.numStayReadState               75568                       # Number of times bus staying in READ state
system.mem_ctrls.numStayWriteState               2658                       # Number of times bus staying in WRITE state
system.mem_ctrls.readReqs                       68438                       # Number of read requests accepted
system.mem_ctrls.writeReqs                      66345                       # Number of write requests accepted
system.mem_ctrls.readBursts                     68438                       # Number of DRAM read bursts, including those serviced by the write queue
system.mem_ctrls.writeBursts                    66345                       # Number of DRAM write bursts, including those merged in the write queue
system.mem_ctrls.bytesReadDRAM                 236480                       # Total number of bytes read from DRAM
system.mem_ctrls.bytesReadWrQ                 4143552                       # Total number of bytes read from write queue
system.mem_ctrls.bytesWritten                  174976                       # Total number of bytes written to DRAM
system.mem_ctrls.bytesReadSys                 4380032                       # Total read bytes from the system interface side
system.mem_ctrls.bytesWrittenSys              4246080                       # Total written bytes from the system interface side
system.mem_ctrls.servicedByWrQ                  64743                       # Number of DRAM read bursts serviced by the write queue
system.mem_ctrls.mergedWrBursts                 63587                       # Number of DRAM write bursts merged with an existing one
system.mem_ctrls.neitherReadNorWriteReqs            0                       # Number of requests that are neither read nor write
system.mem_ctrls.perBankRdBursts::0               418                       # Per bank write bursts
system.mem_ctrls.perBankRdBursts::1               321                       # Per bank write bursts
system.mem_ctrls.perBankRdBursts::2               246                       # Per bank write bursts
system.mem_ctrls.perBankRdBursts::3               210                       # Per bank write bursts
system.mem_ctrls.perBankRdBursts::4               159                       # Per bank write bursts
system.mem_ctrls.perBankRdBursts::5               476                       # Per bank write bursts
system.mem_ctrls.perBankRdBursts::6               697                       # Per bank write bursts
system.mem_ctrls.perBankRdBursts::7               299                       # Per bank write bursts
system.mem_ctrls.perBankRdBursts::8               157                       # Per bank write bursts
system.mem_ctrls.perBankRdBursts::9               229                       # Per bank write bursts
system.mem_ctrls.perBankRdBursts::10              218                       # Per bank write bursts
system.mem_ctrls.perBankRdBursts::11               78                       # Per bank write bursts
system.mem_ctrls.perBankRdBursts::12               28                       # Per bank write bursts
system.mem_ctrls.perBankRdBursts::13               36                       # Per bank write bursts
system.mem_ctrls.perBankRdBursts::14               53                       # Per bank write bursts
system.mem_ctrls.perBankRdBursts::15               70                       # Per bank write bursts
system.mem_ctrls.perBankWrBursts::0               534                       # Per bank write bursts
system.mem_ctrls.perBankWrBursts::1               279                       # Per bank write bursts
system.mem_ctrls.perBankWrBursts::2               270                       # Per bank write bursts
system.mem_ctrls.perBankWrBursts::3                78                       # Per bank write bursts
system.mem_ctrls.perBankWrBursts::4                 8                       # Per bank write bursts
system.mem_ctrls.perBankWrBursts::5               234                       # Per bank write bursts
system.mem_ctrls.perBankWrBursts::6              1009                       # Per bank write bursts
system.mem_ctrls.perBankWrBursts::7               152                       # Per bank write bursts
system.mem_ctrls.perBankWrBursts::8                33                       # Per bank write bursts
system.mem_ctrls.perBankWrBursts::9                 6                       # Per bank write bursts
system.mem_ctrls.perBankWrBursts::10               24                       # Per bank write bursts
system.mem_ctrls.perBankWrBursts::11               52                       # Per bank write bursts
system.mem_ctrls.perBankWrBursts::12               12                       # Per bank write bursts
system.mem_ctrls.perBankWrBursts::13               10                       # Per bank write bursts
system.mem_ctrls.perBankWrBursts::14               32                       # Per bank write bursts
system.mem_ctrls.perBankWrBursts::15                1                       # Per bank write bursts
system.mem_ctrls.numRdRetry                         0                       # Number of times read queue was full causing retry
system.mem_ctrls.numWrRetry                         0                       # Number of times write queue was full causing retry
system.mem_ctrls.totGap                   44811808000                       # Total gap between requests
system.mem_ctrls.readPktSize::0                     0                       # Read request sizes (log2)
system.mem_ctrls.readPktSize::1                     0                       # Read request sizes (log2)
system.mem_ctrls.readPktSize::2                     0                       # Read request sizes (log2)
system.mem_ctrls.readPktSize::3                     0                       # Read request sizes (log2)
system.mem_ctrls.readPktSize::4                     0                       # Read request sizes (log2)
system.mem_ctrls.readPktSize::5                     0                       # Read request sizes (log2)
system.mem_ctrls.readPktSize::6                 68438                       # Read request sizes (log2)
system.mem_ctrls.writePktSize::0                    0                       # Write request sizes (log2)
system.mem_ctrls.writePktSize::1                    0                       # Write request sizes (log2)
system.mem_ctrls.writePktSize::2                    0                       # Write request sizes (log2)
system.mem_ctrls.writePktSize::3                    0                       # Write request sizes (log2)
system.mem_ctrls.writePktSize::4                    0                       # Write request sizes (log2)
system.mem_ctrls.writePktSize::5                    0                       # Write request sizes (log2)
system.mem_ctrls.writePktSize::6                66345                       # Write request sizes (log2)
system.mem_ctrls.rdQLenPdf::0                    3342                       # What read queue length does an incoming req see
system.mem_ctrls.rdQLenPdf::1                     313                       # What read queue length does an incoming req see
system.mem_ctrls.rdQLenPdf::2                      34                       # What read queue length does an incoming req see
system.mem_ctrls.rdQLenPdf::3                       5                       # What read queue length does an incoming req see
system.mem_ctrls.rdQLenPdf::4                       1                       # What read queue length does an incoming req see
system.mem_ctrls.rdQLenPdf::5                       0                       # What read queue length does an incoming req see
system.mem_ctrls.rdQLenPdf::6                       0                       # What read queue length does an incoming req see
system.mem_ctrls.rdQLenPdf::7                       0                       # What read queue length does an incoming req see
system.mem_ctrls.rdQLenPdf::8                       0                       # What read queue length does an incoming req see
system.mem_ctrls.rdQLenPdf::9                       0                       # What read queue length does an incoming req see
system.mem_ctrls.rdQLenPdf::10                      0                       # What read queue length does an incoming req see
system.mem_ctrls.rdQLenPdf::11                      0                       # What read queue length does an incoming req see
system.mem_ctrls.rdQLenPdf::12                      0                       # What read queue length does an incoming req see
system.mem_ctrls.rdQLenPdf::13                      0                       # What read queue length does an incoming req see
system.mem_ctrls.rdQLenPdf::14                      0                       # What read queue length does an incoming req see
system.mem_ctrls.rdQLenPdf::15                      0                       # What read queue length does an incoming req see
system.mem_ctrls.rdQLenPdf::16                      0                       # What read queue length does an incoming req see
system.mem_ctrls.rdQLenPdf::17                      0                       # What read queue length does an incoming req see
system.mem_ctrls.rdQLenPdf::18                      0                       # What read queue length does an incoming req see
system.mem_ctrls.rdQLenPdf::19                      0                       # What read queue length does an incoming req see
system.mem_ctrls.rdQLenPdf::20                      0                       # What read queue length does an incoming req see
system.mem_ctrls.rdQLenPdf::21                      0                       # What read queue length does an incoming req see
system.mem_ctrls.rdQLenPdf::22                      0                       # What read queue length does an incoming req see
system.mem_ctrls.rdQLenPdf::23                      0                       # What read queue length does an incoming req see
system.mem_ctrls.rdQLenPdf::24                      0                       # What read queue length does an incoming req see
system.mem_ctrls.rdQLenPdf::25                      0                       # What read queue length does an incoming req see
system.mem_ctrls.rdQLenPdf::26                      0                       # What read queue length does an incoming req see
system.mem_ctrls.rdQLenPdf::27                      0                       # What read queue length does an incoming req see
system.mem_ctrls.rdQLenPdf::28                      0                       # What read queue length does an incoming req see
system.mem_ctrls.rdQLenPdf::29                      0                       # What read queue length does an incoming req see
system.mem_ctrls.rdQLenPdf::30                      0                       # What read queue length does an incoming req see
system.mem_ctrls.rdQLenPdf::31                      0                       # What read queue length does an incoming req see
system.mem_ctrls.wrQLenPdf::0                       1                       # What write queue length does an incoming req see
system.mem_ctrls.wrQLenPdf::1                       1                       # What write queue length does an incoming req see
system.mem_ctrls.wrQLenPdf::2                       1                       # What write queue length does an incoming req see
system.mem_ctrls.wrQLenPdf::3                       1                       # What write queue length does an incoming req see
system.mem_ctrls.wrQLenPdf::4                       1                       # What write queue length does an incoming req see
system.mem_ctrls.wrQLenPdf::5                       1                       # What write queue length does an incoming req see
system.mem_ctrls.wrQLenPdf::6                       1                       # What write queue length does an incoming req see
system.mem_ctrls.wrQLenPdf::7                       1                       # What write queue length does an incoming req see
system.mem_ctrls.wrQLenPdf::8                       1                       # What write queue length does an incoming req see
system.mem_ctrls.wrQLenPdf::9                       1                       # What write queue length does an incoming req see
system.mem_ctrls.wrQLenPdf::10                      1                       # What write queue length does an incoming req see
system.mem_ctrls.wrQLenPdf::11                      1                       # What write queue length does an incoming req see
system.mem_ctrls.wrQLenPdf::12                      1                       # What write queue length does an incoming req see
system.mem_ctrls.wrQLenPdf::13                      1                       # What write queue length does an incoming req see
system.mem_ctrls.wrQLenPdf::14                      1                       # What write queue length does an incoming req see
system.mem_ctrls.wrQLenPdf::15                     96                       # What write queue length does an incoming req see
system.mem_ctrls.wrQLenPdf::16                    103                       # What write queue length does an incoming req see
system.mem_ctrls.wrQLenPdf::17                    155                       # What write queue length does an incoming req see
system.mem_ctrls.wrQLenPdf::18                    156                       # What write queue length does an incoming req see
system.mem_ctrls.wrQLenPdf::19                    157                       # What write queue length does an incoming req see
system.mem_ctrls.wrQLenPdf::20                    159                       # What write queue length does an incoming req see
system.mem_ctrls.wrQLenPdf::21                    159                       # What write queue length does an incoming req see
system.mem_ctrls.wrQLenPdf::22                    173                       # What write queue length does an incoming req see
system.mem_ctrls.wrQLenPdf::23                    161                       # What write queue length does an incoming req see
system.mem_ctrls.wrQLenPdf::24                    157                       # What write queue length does an incoming req see
system.mem_ctrls.wrQLenPdf::25                    159                       # What write queue length does an incoming req see
system.mem_ctrls.wrQLenPdf::26                    157                       # What write queue length does an incoming req see
system.mem_ctrls.wrQLenPdf::27                    160                       # What write queue length does an incoming req see
system.mem_ctrls.wrQLenPdf::28                    158                       # What write queue length does an incoming req see
system.mem_ctrls.wrQLenPdf::29                    157                       # What write queue length does an incoming req see
system.mem_ctrls.wrQLenPdf::30                    157                       # What write queue length does an incoming req see
system.mem_ctrls.wrQLenPdf::31                    158                       # What write queue length does an incoming req see
system.mem_ctrls.wrQLenPdf::32                    156                       # What write queue length does an incoming req see
system.mem_ctrls.wrQLenPdf::33                      3                       # What write queue length does an incoming req see
system.mem_ctrls.wrQLenPdf::34                      2                       # What write queue length does an incoming req see
system.mem_ctrls.wrQLenPdf::35                      0                       # What write queue length does an incoming req see
system.mem_ctrls.wrQLenPdf::36                      0                       # What write queue length does an incoming req see
system.mem_ctrls.wrQLenPdf::37                      0                       # What write queue length does an incoming req see
system.mem_ctrls.wrQLenPdf::38                      0                       # What write queue length does an incoming req see
system.mem_ctrls.wrQLenPdf::39                      0                       # What write queue length does an incoming req see
system.mem_ctrls.wrQLenPdf::40                      0                       # What write queue length does an incoming req see
system.mem_ctrls.wrQLenPdf::41                      0                       # What write queue length does an incoming req see
system.mem_ctrls.wrQLenPdf::42                      0                       # What write queue length does an incoming req see
system.mem_ctrls.wrQLenPdf::43                      0                       # What write queue length does an incoming req see
system.mem_ctrls.wrQLenPdf::44                      0                       # What write queue length does an incoming req see
system.mem_ctrls.wrQLenPdf::45                      0                       # What write queue length does an incoming req see
system.mem_ctrls.wrQLenPdf::46                      0                       # What write queue length does an incoming req see
system.mem_ctrls.wrQLenPdf::47                      0                       # What write queue length does an incoming req see
system.mem_ctrls.wrQLenPdf::48                      0                       # What write queue length does an incoming req see
system.mem_ctrls.wrQLenPdf::49                      0                       # What write queue length does an incoming req see
system.mem_ctrls.wrQLenPdf::50                      0                       # What write queue length does an incoming req see
system.mem_ctrls.wrQLenPdf::51                      0                       # What write queue length does an incoming req see
system.mem_ctrls.wrQLenPdf::52                      0                       # What write queue length does an incoming req see
system.mem_ctrls.wrQLenPdf::53                      0                       # What write queue length does an incoming req see
system.mem_ctrls.wrQLenPdf::54                      0                       # What write queue length does an incoming req see
system.mem_ctrls.wrQLenPdf::55                      0                       # What write queue length does an incoming req see
system.mem_ctrls.wrQLenPdf::56                      0                       # What write queue length does an incoming req see
system.mem_ctrls.wrQLenPdf::57                      0                       # What write queue length does an incoming req see
system.mem_ctrls.wrQLenPdf::58                      0                       # What write queue length does an incoming req see
system.mem_ctrls.wrQLenPdf::59                      0                       # What write queue length does an incoming req see
system.mem_ctrls.wrQLenPdf::60                      0                       # What write queue length does an incoming req see
system.mem_ctrls.wrQLenPdf::61                      0                       # What write queue length does an incoming req see
system.mem_ctrls.wrQLenPdf::62                      0                       # What write queue length does an incoming req see
system.mem_ctrls.wrQLenPdf::63                      0                       # What write queue length does an incoming req see
system.mem_ctrls.bytesPerActivate::samples         2159                       # Bytes accessed per row activation
system.mem_ctrls.bytesPerActivate::mean    188.324224                       # Bytes accessed per row activation
system.mem_ctrls.bytesPerActivate::gmean   123.998477                       # Bytes accessed per row activation
system.mem_ctrls.bytesPerActivate::stdev   210.544091                       # Bytes accessed per row activation
system.mem_ctrls.bytesPerActivate::0-127         1122     51.97%     51.97% # Bytes accessed per row activation
system.mem_ctrls.bytesPerActivate::128-255          534     24.73%     76.70% # Bytes accessed per row activation
system.mem_ctrls.bytesPerActivate::256-383          162      7.50%     84.21% # Bytes accessed per row activation
system.mem_ctrls.bytesPerActivate::384-511          101      4.68%     88.88% # Bytes accessed per row activation
system.mem_ctrls.bytesPerActivate::512-639           70      3.24%     92.13% # Bytes accessed per row activation
system.mem_ctrls.bytesPerActivate::640-767           85      3.94%     96.06% # Bytes accessed per row activation
system.mem_ctrls.bytesPerActivate::768-895           47      2.18%     98.24% # Bytes accessed per row activation
system.mem_ctrls.bytesPerActivate::896-1023           10      0.46%     98.70% # Bytes accessed per row activation
system.mem_ctrls.bytesPerActivate::1024-1151           28      1.30%    100.00% # Bytes accessed per row activation
system.mem_ctrls.bytesPerActivate::total         2159                       # Bytes accessed per row activation
system.mem_ctrls.rdPerTurnAround::samples          156                       # Reads before turning the bus around for writes
system.mem_ctrls.rdPerTurnAround::mean      23.641026                       # Reads before turning the bus around for writes
system.mem_ctrls.rdPerTurnAround::gmean     16.361636                       # Reads before turning the bus around for writes
system.mem_ctrls.rdPerTurnAround::stdev     35.806280                       # Reads before turning the bus around for writes
system.mem_ctrls.rdPerTurnAround::0-15             74     47.44%     47.44% # Reads before turning the bus around for writes
system.mem_ctrls.rdPerTurnAround::16-31            52     33.33%     80.77% # Reads before turning the bus around for writes
system.mem_ctrls.rdPerTurnAround::32-47            15      9.62%     90.38% # Reads before turning the bus around for writes
system.mem_ctrls.rdPerTurnAround::48-63            11      7.05%     97.44% # Reads before turning the bus around for writes
system.mem_ctrls.rdPerTurnAround::64-79             2      1.28%     98.72% # Reads before turning the bus around for writes
system.mem_ctrls.rdPerTurnAround::96-111            1      0.64%     99.36% # Reads before turning the bus around for writes
system.mem_ctrls.rdPerTurnAround::416-431            1      0.64%    100.00% # Reads before turning the bus around for writes
system.mem_ctrls.rdPerTurnAround::total           156                       # Reads before turning the bus around for writes
system.mem_ctrls.wrPerTurnAround::samples          156                       # Writes before turning the bus around for reads
system.mem_ctrls.wrPerTurnAround::mean      17.525641                       # Writes before turning the bus around for reads
system.mem_ctrls.wrPerTurnAround::gmean     17.470554                       # Writes before turning the bus around for reads
system.mem_ctrls.wrPerTurnAround::stdev      1.416259                       # Writes before turning the bus around for reads
system.mem_ctrls.wrPerTurnAround::16               59     37.82%     37.82% # Writes before turning the bus around for reads
system.mem_ctrls.wrPerTurnAround::17                2      1.28%     39.10% # Writes before turning the bus around for reads
system.mem_ctrls.wrPerTurnAround::18               68     43.59%     82.69% # Writes before turning the bus around for reads
system.mem_ctrls.wrPerTurnAround::19               14      8.97%     91.67% # Writes before turning the bus around for reads
system.mem_ctrls.wrPerTurnAround::20               11      7.05%     98.72% # Writes before turning the bus around for reads
system.mem_ctrls.wrPerTurnAround::23                2      1.28%    100.00% # Writes before turning the bus around for reads
system.mem_ctrls.wrPerTurnAround::total           156                       # Writes before turning the bus around for reads
system.mem_ctrls.masterReadBytes::.cpu.inst       123072                       # Per-master bytes read from memory
system.mem_ctrls.masterReadBytes::.cpu.data       113408                       # Per-master bytes read from memory
system.mem_ctrls.masterWriteBytes::.writebacks       174976                       # Per-master bytes write to memory
system.mem_ctrls.masterReadRate::.cpu.inst 2746418.397334587295                       # Per-master bytes read from memory rate (Bytes/sec)
system.mem_ctrls.masterReadRate::.cpu.data 2530760.998479921371                       # Per-master bytes read from memory rate (Bytes/sec)
system.mem_ctrls.masterWriteRate::.writebacks 3904684.294494415633                       # Per-master bytes write to memory rate (Bytes/sec)
system.mem_ctrls.masterReadAccesses::.cpu.inst        66666                       # Per-master read serviced memory accesses
system.mem_ctrls.masterReadAccesses::.cpu.data         1772                       # Per-master read serviced memory accesses
system.mem_ctrls.masterWriteAccesses::.writebacks        66345                       # Per-master write serviced memory accesses
system.mem_ctrls.masterReadTotalLat::.cpu.inst    113153500                       # Per-master read total memory access latency
system.mem_ctrls.masterReadTotalLat::.cpu.data    380018250                       # Per-master read total memory access latency
system.mem_ctrls.masterWriteTotalLat::.writebacks 1219468114000                       # Per-master write total memory access latency
system.mem_ctrls.masterReadAvgLat::.cpu.inst      1697.32                       # Per-master read average memory access latency
system.mem_ctrls.masterReadAvgLat::.cpu.data    214457.25                       # Per-master read average memory access latency
system.mem_ctrls.masterWriteAvgLat::.writebacks  18380708.63                       # Per-master write average memory access latency
system.mem_ctrls.totQLat                    423890500                       # Total ticks spent queuing
system.mem_ctrls.totMemAccLat               493171750                       # Total ticks spent from burst creation until serviced by the DRAM
system.mem_ctrls.totBusLat                   18475000                       # Total ticks spent in databus transfers
system.mem_ctrls.avgQLat                    114720.03                       # Average queueing delay per DRAM burst
system.mem_ctrls.avgBusLat                    5000.00                       # Average bus latency per DRAM burst
system.mem_ctrls.avgMemAccLat               133470.03                       # Average memory access latency per DRAM burst
system.mem_ctrls.avgRdBW                         5.28                       # Average DRAM read bandwidth in MiByte/s
system.mem_ctrls.avgWrBW                         3.90                       # Average achieved write bandwidth in MiByte/s
system.mem_ctrls.avgRdBWSys                     97.74                       # Average system read bandwidth in MiByte/s
system.mem_ctrls.avgWrBWSys                     94.75                       # Average system write bandwidth in MiByte/s
system.mem_ctrls.peakBW                      12800.00                       # Theoretical peak bandwidth in MiByte/s
system.mem_ctrls.busUtil                         0.07                       # Data bus utilization in percentage
system.mem_ctrls.busUtilRead                     0.04                       # Data bus utilization in percentage for reads
system.mem_ctrls.busUtilWrite                    0.03                       # Data bus utilization in percentage for writes
system.mem_ctrls.avgRdQLen                       1.01                       # Average read queue length when enqueuing
system.mem_ctrls.avgWrQLen                      27.48                       # Average write queue length when enqueuing
system.mem_ctrls.readRowHits                     1962                       # Number of row buffer hits during reads
system.mem_ctrls.writeRowHits                    2294                       # Number of row buffer hits during writes
system.mem_ctrls.readRowHitRate                 53.10                       # Row buffer hit rate for reads
system.mem_ctrls.writeRowHitRate                83.18                       # Row buffer hit rate for writes
system.mem_ctrls.avgGap                     332473.74                       # Average gap between requests
system.mem_ctrls.pageHitRate                    65.95                       # Row buffer hit rate, read and write combined
system.mem_ctrls_0.actEnergy                 11395440                       # Energy for activate commands per rank (pJ)
system.mem_ctrls_0.preEnergy                  6030255                       # Energy for precharge commands per rank (pJ)
system.mem_ctrls_0.readEnergy                20177640                       # Energy for read commands per rank (pJ)
system.mem_ctrls_0.writeEnergy               13384080                       # Energy for write commands per rank (pJ)
system.mem_ctrls_0.refreshEnergy         793500240.000000                       # Energy for refresh commands per rank (pJ)
system.mem_ctrls_0.actBackEnergy            303193260                       # Energy for active background per rank (pJ)
system.mem_ctrls_0.preBackEnergy             57924480                       # Energy for precharge background per rank (pJ)
system.mem_ctrls_0.actPowerDownEnergy      2308754220                       # Energy for active power-down per rank (pJ)
system.mem_ctrls_0.prePowerDownEnergy      1648898400                       # Energy for precharge power-down per rank (pJ)
system.mem_ctrls_0.selfRefreshEnergy       8545855740                       # Energy for self refresh per rank (pJ)
system.mem_ctrls_0.totalEnergy            13709378985                       # Total energy per rank (pJ)
system.mem_ctrls_0.averagePower            305.932224                       # Core power per rank (mW)
system.mem_ctrls_0.totalIdleTime          43995460500                       # Total Idle time Per DRAM Rank
system.mem_ctrls_0.memoryStateTime::IDLE    121398000                       # Time in different power states
system.mem_ctrls_0.memoryStateTime::REF     335660000                       # Time in different power states
system.mem_ctrls_0.memoryStateTime::SREF  34638418250                       # Time in different power states
system.mem_ctrls_0.memoryStateTime::PRE_PDN   4294000750                       # Time in different power states
system.mem_ctrls_0.memoryStateTime::ACT     359264250                       # Time in different power states
system.mem_ctrls_0.memoryStateTime::ACT_PDN   5063076250                       # Time in different power states
system.mem_ctrls_1.actEnergy                  4119780                       # Energy for activate commands per rank (pJ)
system.mem_ctrls_1.preEnergy                  2163150                       # Energy for precharge commands per rank (pJ)
system.mem_ctrls_1.readEnergy                 6204660                       # Energy for read commands per rank (pJ)
system.mem_ctrls_1.writeEnergy                 887400                       # Energy for write commands per rank (pJ)
system.mem_ctrls_1.refreshEnergy         480033840.000000                       # Energy for refresh commands per rank (pJ)
system.mem_ctrls_1.actBackEnergy            165280050                       # Energy for active background per rank (pJ)
system.mem_ctrls_1.preBackEnergy             43582080                       # Energy for precharge background per rank (pJ)
system.mem_ctrls_1.actPowerDownEnergy      1227054390                       # Energy for active power-down per rank (pJ)
system.mem_ctrls_1.prePowerDownEnergy      1157594880                       # Energy for precharge power-down per rank (pJ)
system.mem_ctrls_1.selfRefreshEnergy       9459606840                       # Energy for self refresh per rank (pJ)
system.mem_ctrls_1.totalEnergy            12546592920                       # Total energy per rank (pJ)
system.mem_ctrls_1.averagePower            279.984023                       # Core power per rank (mW)
system.mem_ctrls_1.totalIdleTime          44335472500                       # Total Idle time Per DRAM Rank
system.mem_ctrls_1.memoryStateTime::IDLE     96851000                       # Time in different power states
system.mem_ctrls_1.memoryStateTime::REF     203060000                       # Time in different power states
system.mem_ctrls_1.memoryStateTime::SREF  38630235250                       # Time in different power states
system.mem_ctrls_1.memoryStateTime::PRE_PDN   3014565750                       # Time in different power states
system.mem_ctrls_1.memoryStateTime::ACT     176172750                       # Time in different power states
system.mem_ctrls_1.memoryStateTime::ACT_PDN   2690932750                       # Time in different power states
system.pwrStateResidencyTicks::UNDEFINED  44811817500                       # Cumulative time (in ticks) in various power states
system.cpu.branchPred.lookups                 5848091                       # Number of BP lookups
system.cpu.branchPred.condPredicted           4447897                       # Number of conditional branches predicted
system.cpu.branchPred.condIncorrect            880815                       # Number of conditional branches incorrect
system.cpu.branchPred.BTBLookups              4976444                       # Number of BTB lookups
system.cpu.branchPred.BTBHits                 3464961                       # Number of BTB hits
system.cpu.branchPred.BTBCorrect                    0                       # Number of correct BTB predictions (this stat may not work properly.
system.cpu.branchPred.BTBHitPct             69.627248                       # BTB Hit Percentage
system.cpu.branchPred.usedRAS                  349608                       # Number of times the RAS was used to get a target.
system.cpu.branchPred.RASInCorrect                  0                       # Number of incorrect RAS predictions.
system.cpu.branchPred.indirectLookups           92513                       # Number of indirect predictor lookups.
system.cpu.branchPred.indirectHits              87352                       # Number of indirect target hits.
system.cpu.branchPred.indirectMisses             5161                       # Number of indirect misses.
system.cpu.branchPredindirectMispredicted           61                       # Number of mispredicted indirect branches.
system.cpu_voltage_domain.voltage                   1                       # Voltage in Volts
system.cpu_clk_domain.clock                       500                       # Clock period in ticks
system.cpu.dtb.fetch_hits                           0                       # ITB hits
system.cpu.dtb.fetch_misses                         0                       # ITB misses
system.cpu.dtb.fetch_acv                            0                       # ITB acv
system.cpu.dtb.fetch_accesses                       0                       # ITB accesses
system.cpu.dtb.read_hits                      1157736                       # DTB read hits
system.cpu.dtb.read_misses                         28                       # DTB read misses
system.cpu.dtb.read_acv                             0                       # DTB read access violations
system.cpu.dtb.read_accesses                  1157764                       # DTB read accesses
system.cpu.dtb.write_hits                     1036845                       # DTB write hits
system.cpu.dtb.write_misses                         6                       # DTB write misses
system.cpu.dtb.write_acv                            0                       # DTB write access violations
system.cpu.dtb.write_accesses                 1036851                       # DTB write accesses
system.cpu.dtb.data_hits                      2194581                       # DTB hits
system.cpu.dtb.data_misses                         34                       # DTB misses
system.cpu.dtb.data_acv                             0                       # DTB access violations
system.cpu.dtb.data_accesses                  2194615                       # DTB accesses
system.cpu.itb.fetch_hits                    29526370                       # ITB hits
system.cpu.itb.fetch_misses                        51                       # ITB misses
system.cpu.itb.fetch_acv                            0                       # ITB acv
system.cpu.itb.fetch_accesses                29526421                       # ITB accesses
system.cpu.itb.read_hits                            0                       # DTB read hits
system.cpu.itb.read_misses                          0                       # DTB read misses
system.cpu.itb.read_acv                             0                       # DTB read access violations
system.cpu.itb.read_accesses                        0                       # DTB read accesses
system.cpu.itb.write_hits                           0                       # DTB write hits
system.cpu.itb.write_misses                         0                       # DTB write misses
system.cpu.itb.write_acv                            0                       # DTB write access violations
system.cpu.itb.write_accesses                       0                       # DTB write accesses
system.cpu.itb.data_hits                            0                       # DTB hits
system.cpu.itb.data_misses                          0                       # DTB misses
system.cpu.itb.data_acv                             0                       # DTB access violations
system.cpu.itb.data_accesses                        0                       # DTB accesses
system.cpu.workload.numSyscalls                 99121                       # Number of system calls
system.cpu.pwrStateResidencyTicks::ON     44811817500                       # Cumulative time (in ticks) in various power states
system.cpu.numCycles                         89623715                       # number of cpu cycles simulated
system.cpu.numWorkItemsStarted                      0                       # number of work items this cpu started
system.cpu.numWorkItemsCompleted                    0                       # number of work items this cpu completed
system.cpu.fetch.icacheStallCycles           31997112                       # Number of cycles fetch is stalled on an Icache miss
system.cpu.fetch.Insts                       52657009                       # Number of instructions fetch has processed
system.cpu.fetch.Branches                     5848091                       # Number of branches that fetch encountered
system.cpu.fetch.predictedBranches            3901921                       # Number of branches that fetch has predicted taken
system.cpu.fetch.Cycles                      55761859                       # Number of cycles fetch has run and was not squashing or blocked
system.cpu.fetch.SquashCycles                 1761828                       # Number of cycles fetch has spent squashing
system.cpu.fetch.MiscStallCycles                   49                       # Number of cycles fetch has spent waiting on interrupts, or bad addresses, or out of MSHRs
system.cpu.fetch.PendingTrapStallCycles           800                       # Number of stall cycles due to pending traps
system.cpu.fetch.CacheLines                  29526370                       # Number of cache lines fetched
system.cpu.fetch.IcacheSquashes                289477                       # Number of outstanding Icache misses that were squashed
system.cpu.fetch.rateDist::samples           88640734                       # Number of instructions fetched each cycle (Total)
system.cpu.fetch.rateDist::mean              0.594050                       # Number of instructions fetched each cycle (Total)
system.cpu.fetch.rateDist::stdev             0.857507                       # Number of instructions fetched each cycle (Total)
system.cpu.fetch.rateDist::underflows               0      0.00%      0.00% # Number of instructions fetched each cycle (Total)
system.cpu.fetch.rateDist::0                 57885244     65.30%     65.30% # Number of instructions fetched each cycle (Total)
system.cpu.fetch.rateDist::1                  8853971      9.99%     75.29% # Number of instructions fetched each cycle (Total)
system.cpu.fetch.rateDist::2                 21901519     24.71%    100.00% # Number of instructions fetched each cycle (Total)
system.cpu.fetch.rateDist::overflows                0      0.00%    100.00% # Number of instructions fetched each cycle (Total)
system.cpu.fetch.rateDist::min_value                0                       # Number of instructions fetched each cycle (Total)
system.cpu.fetch.rateDist::max_value                2                       # Number of instructions fetched each cycle (Total)
system.cpu.fetch.rateDist::total             88640734                       # Number of instructions fetched each cycle (Total)
system.cpu.fetch.branchRate                  0.065252                       # Number of branch fetches per cycle
system.cpu.fetch.rate                        0.587534                       # Number of inst fetches per cycle
system.cpu.decode.IdleCycles                  6925789                       # Number of cycles decode is idle
system.cpu.decode.BlockedCycles              57168777                       # Number of cycles decode is blocked
system.cpu.decode.RunCycles                   2796785                       # Number of cycles decode is running
system.cpu.decode.UnblockCycles              21024121                       # Number of cycles decode is unblocking
system.cpu.decode.SquashCycles                 725262                       # Number of cycles decode is squashing
system.cpu.decode.BranchResolved              3313736                       # Number of times decode resolved a branch
system.cpu.decode.BranchMispred                157628                       # Number of times decode detected a branch misprediction
system.cpu.decode.DecodedInsts               46377333                       # Number of instructions handled by decode
system.cpu.decode.SquashedInsts                 16509                       # Number of squashed instructions handled by decode
system.cpu.rename.SquashCycles                 725262                       # Number of cycles rename is squashing
system.cpu.rename.IdleCycles                  7290213                       # Number of cycles rename is idle
system.cpu.rename.BlockCycles                48431868                       # Number of cycles rename is blocking
system.cpu.rename.serializeStallCycles         846312                       # count of cycles rename stalled for serializing inst
system.cpu.rename.RunCycles                   2599318                       # Number of cycles rename is running
system.cpu.rename.UnblockCycles              28747761                       # Number of cycles rename is unblocking
system.cpu.rename.RenamedInsts               45487133                       # Number of instructions processed by rename
system.cpu.rename.ROBFullEvents               8025478                       # Number of times rename has blocked due to ROB full
system.cpu.rename.IQFullEvents                     11                       # Number of times rename has blocked due to IQ full
system.cpu.rename.SQFullEvents                   3778                       # Number of times rename has blocked due to SQ full
system.cpu.rename.RenamedOperands            38826564                       # Number of destination operands rename has renamed
system.cpu.rename.RenameLookups              71501504                       # Number of register rename lookups that rename has made
system.cpu.rename.int_rename_lookups         69784964                       # Number of integer rename lookups
system.cpu.rename.fp_rename_lookups           1716527                       # Number of floating rename lookups
system.cpu.rename.CommittedMaps              37470582                       # Number of HB maps that are committed
system.cpu.rename.UndoneMaps                  1355982                       # Number of HB maps that are undone due to squashing
system.cpu.rename.serializingInsts             122871                       # count of serializing insts renamed
system.cpu.rename.tempSerializingInsts          99136                       # count of temporary serializing insts renamed
system.cpu.rename.skidInsts                  42265644                       # count of insts added to the skid buffer
system.cpu.memDep0.insertedLoads              1166353                       # Number of loads inserted to the mem dependence unit.
system.cpu.memDep0.insertedStores             1036864                       # Number of stores inserted to the mem dependence unit.
system.cpu.memDep0.conflictingLoads                27                       # Number of conflicting loads.
system.cpu.memDep0.conflictingStores                1                       # Number of conflicting stores.
system.cpu.iq.iqInstsAdded                   43477790                       # Number of instructions added to the IQ (excludes non-spec)
system.cpu.iq.iqNonSpecInstsAdded               99154                       # Number of non-speculative instructions added to the IQ
system.cpu.iq.iqInstsIssued                  43465563                       # Number of instructions issued
system.cpu.iq.iqSquashedInstsIssued             65485                       # Number of squashed instructions issued
system.cpu.iq.iqSquashedInstsExamined          761254                       # Number of squashed instructions iterated over during squash; mainly for profiling
system.cpu.iq.iqSquashedOperandsExamined       160737                       # Number of squashed operands that are examined and possibly removed from graph
system.cpu.iq.issued_per_cycle::samples      88640734                       # Number of insts issued each cycle
system.cpu.iq.issued_per_cycle::mean         0.490357                       # Number of insts issued each cycle
system.cpu.iq.issued_per_cycle::stdev        0.514937                       # Number of insts issued each cycle
system.cpu.iq.issued_per_cycle::underflows            0      0.00%      0.00% # Number of insts issued each cycle
system.cpu.iq.issued_per_cycle::0            45851205     51.73%     51.73% # Number of insts issued each cycle
system.cpu.iq.issued_per_cycle::1            42113495     47.51%     99.24% # Number of insts issued each cycle
system.cpu.iq.issued_per_cycle::2              676034      0.76%    100.00% # Number of insts issued each cycle
system.cpu.iq.issued_per_cycle::overflows            0      0.00%    100.00% # Number of insts issued each cycle
system.cpu.iq.issued_per_cycle::min_value            0                       # Number of insts issued each cycle
system.cpu.iq.issued_per_cycle::max_value            2                       # Number of insts issued each cycle
system.cpu.iq.issued_per_cycle::total        88640734                       # Number of insts issued each cycle
system.cpu.iq.fu_full::No_OpClass                   0      0.00%      0.00% # attempts to use FU when none available
system.cpu.iq.fu_full::IntAlu                 7014613     99.60%     99.60% # attempts to use FU when none available
system.cpu.iq.fu_full::IntMult                      0      0.00%     99.60% # attempts to use FU when none available
system.cpu.iq.fu_full::IntDiv                       0      0.00%     99.60% # attempts to use FU when none available
system.cpu.iq.fu_full::FloatAdd                 11862      0.17%     99.77% # attempts to use FU when none available
system.cpu.iq.fu_full::FloatCmp                  2944      0.04%     99.81% # attempts to use FU when none available
system.cpu.iq.fu_full::FloatCvt                 12843      0.18%    100.00% # attempts to use FU when none available
system.cpu.iq.fu_full::FloatMult                  237      0.00%    100.00% # attempts to use FU when none available
system.cpu.iq.fu_full::FloatMultAcc                 0      0.00%    100.00% # attempts to use FU when none available
system.cpu.iq.fu_full::FloatDiv                     0      0.00%    100.00% # attempts to use FU when none available
system.cpu.iq.fu_full::FloatMisc                    0      0.00%    100.00% # attempts to use FU when none available
system.cpu.iq.fu_full::FloatSqrt                    0      0.00%    100.00% # attempts to use FU when none available
system.cpu.iq.fu_full::SimdAdd                      0      0.00%    100.00% # attempts to use FU when none available
system.cpu.iq.fu_full::SimdAddAcc                   0      0.00%    100.00% # attempts to use FU when none available
system.cpu.iq.fu_full::SimdAlu                      0      0.00%    100.00% # attempts to use FU when none available
system.cpu.iq.fu_full::SimdCmp                      0      0.00%    100.00% # attempts to use FU when none available
system.cpu.iq.fu_full::SimdCvt                      0      0.00%    100.00% # attempts to use FU when none available
system.cpu.iq.fu_full::SimdMisc                     0      0.00%    100.00% # attempts to use FU when none available
system.cpu.iq.fu_full::SimdMult                     0      0.00%    100.00% # attempts to use FU when none available
system.cpu.iq.fu_full::SimdMultAcc                  0      0.00%    100.00% # attempts to use FU when none available
system.cpu.iq.fu_full::SimdShift                    0      0.00%    100.00% # attempts to use FU when none available
system.cpu.iq.fu_full::SimdShiftAcc                 0      0.00%    100.00% # attempts to use FU when none available
system.cpu.iq.fu_full::SimdSqrt                     0      0.00%    100.00% # attempts to use FU when none available
system.cpu.iq.fu_full::SimdFloatAdd                 0      0.00%    100.00% # attempts to use FU when none available
system.cpu.iq.fu_full::SimdFloatAlu                 0      0.00%    100.00% # attempts to use FU when none available
system.cpu.iq.fu_full::SimdFloatCmp                 0      0.00%    100.00% # attempts to use FU when none available
system.cpu.iq.fu_full::SimdFloatCvt                 0      0.00%    100.00% # attempts to use FU when none available
system.cpu.iq.fu_full::SimdFloatDiv                 0      0.00%    100.00% # attempts to use FU when none available
system.cpu.iq.fu_full::SimdFloatMisc                0      0.00%    100.00% # attempts to use FU when none available
system.cpu.iq.fu_full::SimdFloatMult                0      0.00%    100.00% # attempts to use FU when none available
system.cpu.iq.fu_full::SimdFloatMultAcc             0      0.00%    100.00% # attempts to use FU when none available
system.cpu.iq.fu_full::SimdFloatSqrt                0      0.00%    100.00% # attempts to use FU when none available
system.cpu.iq.fu_full::SimdAes                      0      0.00%    100.00% # attempts to use FU when none available
system.cpu.iq.fu_full::SimdAesMix                   0      0.00%    100.00% # attempts to use FU when none available
system.cpu.iq.fu_full::SimdSha1Hash                 0      0.00%    100.00% # attempts to use FU when none available
system.cpu.iq.fu_full::SimdSha1Hash2                0      0.00%    100.00% # attempts to use FU when none available
system.cpu.iq.fu_full::SimdSha256Hash               0      0.00%    100.00% # attempts to use FU when none available
system.cpu.iq.fu_full::SimdSha256Hash2              0      0.00%    100.00% # attempts to use FU when none available
system.cpu.iq.fu_full::SimdShaSigma2                0      0.00%    100.00% # attempts to use FU when none available
system.cpu.iq.fu_full::SimdShaSigma3                0      0.00%    100.00% # attempts to use FU when none available
system.cpu.iq.fu_full::MemRead                      0      0.00%    100.00% # attempts to use FU when none available
system.cpu.iq.fu_full::MemWrite                     0      0.00%    100.00% # attempts to use FU when none available
system.cpu.iq.fu_full::FloatMemRead                 0      0.00%    100.00% # attempts to use FU when none available
system.cpu.iq.fu_full::FloatMemWrite                0      0.00%    100.00% # attempts to use FU when none available
system.cpu.iq.fu_full::IprAccess                    0      0.00%    100.00% # attempts to use FU when none available
system.cpu.iq.fu_full::InstPrefetch                 0      0.00%    100.00% # attempts to use FU when none available
system.cpu.iq.FU_type_0::No_OpClass                53      0.00%      0.00% # Type of FU issued
system.cpu.iq.FU_type_0::IntAlu              39957004     91.93%     91.93% # Type of FU issued
system.cpu.iq.FU_type_0::IntMult               384355      0.88%     92.81% # Type of FU issued
system.cpu.iq.FU_type_0::IntDiv                     0      0.00%     92.81% # Type of FU issued
system.cpu.iq.FU_type_0::FloatAdd              558967      1.29%     94.10% # Type of FU issued
system.cpu.iq.FU_type_0::FloatCmp               95693      0.22%     94.32% # Type of FU issued
system.cpu.iq.FU_type_0::FloatCvt               90603      0.21%     94.53% # Type of FU issued
system.cpu.iq.FU_type_0::FloatMult             158320      0.36%     94.89% # Type of FU issued
system.cpu.iq.FU_type_0::FloatMultAcc               0      0.00%     94.89% # Type of FU issued
system.cpu.iq.FU_type_0::FloatDiv               13093      0.03%     94.92% # Type of FU issued
system.cpu.iq.FU_type_0::FloatMisc                  0      0.00%     94.92% # Type of FU issued
system.cpu.iq.FU_type_0::FloatSqrt               4362      0.01%     94.93% # Type of FU issued
system.cpu.iq.FU_type_0::SimdAdd                    0      0.00%     94.93% # Type of FU issued
system.cpu.iq.FU_type_0::SimdAddAcc                 0      0.00%     94.93% # Type of FU issued
system.cpu.iq.FU_type_0::SimdAlu                    0      0.00%     94.93% # Type of FU issued
system.cpu.iq.FU_type_0::SimdCmp                    0      0.00%     94.93% # Type of FU issued
system.cpu.iq.FU_type_0::SimdCvt                    0      0.00%     94.93% # Type of FU issued
system.cpu.iq.FU_type_0::SimdMisc                   0      0.00%     94.93% # Type of FU issued
system.cpu.iq.FU_type_0::SimdMult                   0      0.00%     94.93% # Type of FU issued
system.cpu.iq.FU_type_0::SimdMultAcc                0      0.00%     94.93% # Type of FU issued
system.cpu.iq.FU_type_0::SimdShift                  0      0.00%     94.93% # Type of FU issued
system.cpu.iq.FU_type_0::SimdShiftAcc               0      0.00%     94.93% # Type of FU issued
system.cpu.iq.FU_type_0::SimdSqrt                   0      0.00%     94.93% # Type of FU issued
system.cpu.iq.FU_type_0::SimdFloatAdd               0      0.00%     94.93% # Type of FU issued
system.cpu.iq.FU_type_0::SimdFloatAlu               0      0.00%     94.93% # Type of FU issued
system.cpu.iq.FU_type_0::SimdFloatCmp               0      0.00%     94.93% # Type of FU issued
system.cpu.iq.FU_type_0::SimdFloatCvt               0      0.00%     94.93% # Type of FU issued
system.cpu.iq.FU_type_0::SimdFloatDiv               0      0.00%     94.93% # Type of FU issued
system.cpu.iq.FU_type_0::SimdFloatMisc              0      0.00%     94.93% # Type of FU issued
system.cpu.iq.FU_type_0::SimdFloatMult              0      0.00%     94.93% # Type of FU issued
system.cpu.iq.FU_type_0::SimdFloatMultAcc            0      0.00%     94.93% # Type of FU issued
system.cpu.iq.FU_type_0::SimdFloatSqrt              0      0.00%     94.93% # Type of FU issued
system.cpu.iq.FU_type_0::SimdAes                    0      0.00%     94.93% # Type of FU issued
system.cpu.iq.FU_type_0::SimdAesMix                 0      0.00%     94.93% # Type of FU issued
system.cpu.iq.FU_type_0::SimdSha1Hash               0      0.00%     94.93% # Type of FU issued
system.cpu.iq.FU_type_0::SimdSha1Hash2              0      0.00%     94.93% # Type of FU issued
system.cpu.iq.FU_type_0::SimdSha256Hash             0      0.00%     94.93% # Type of FU issued
system.cpu.iq.FU_type_0::SimdSha256Hash2            0      0.00%     94.93% # Type of FU issued
system.cpu.iq.FU_type_0::SimdShaSigma2              0      0.00%     94.93% # Type of FU issued
system.cpu.iq.FU_type_0::SimdShaSigma3              0      0.00%     94.93% # Type of FU issued
system.cpu.iq.FU_type_0::MemRead               889526      2.05%     96.98% # Type of FU issued
system.cpu.iq.FU_type_0::MemWrite              938597      2.16%     99.14% # Type of FU issued
system.cpu.iq.FU_type_0::FloatMemRead          276724      0.64%     99.77% # Type of FU issued
system.cpu.iq.FU_type_0::FloatMemWrite          98266      0.23%    100.00% # Type of FU issued
system.cpu.iq.FU_type_0::IprAccess                  0      0.00%    100.00% # Type of FU issued
system.cpu.iq.FU_type_0::InstPrefetch               0      0.00%    100.00% # Type of FU issued
system.cpu.iq.FU_type_0::total               43465563                       # Type of FU issued
system.cpu.iq.rate                           0.484978                       # Inst issue rate
system.cpu.iq.fu_busy_cnt                     7042499                       # FU busy when requested
system.cpu.iq.fu_busy_rate                   0.162025                       # FU busy rate (busy events/executed inst)
system.cpu.iq.int_inst_queue_reads          180059902                       # Number of integer instruction queue reads
system.cpu.iq.int_inst_queue_writes          43005510                       # Number of integer instruction queue writes
system.cpu.iq.int_inst_queue_wakeup_accesses     41954765                       # Number of integer instruction queue wakeup accesses
system.cpu.iq.fp_inst_queue_reads             2619942                       # Number of floating instruction queue reads
system.cpu.iq.fp_inst_queue_writes            1332690                       # Number of floating instruction queue writes
system.cpu.iq.fp_inst_queue_wakeup_accesses      1275029                       # Number of floating instruction queue wakeup accesses
system.cpu.iq.vec_inst_queue_reads                  0                       # Number of vector instruction queue reads
system.cpu.iq.vec_inst_queue_writes                 0                       # Number of vector instruction queue writes
system.cpu.iq.vec_inst_queue_wakeup_accesses            0                       # Number of vector instruction queue wakeup accesses
system.cpu.iq.int_alu_accesses               49184095                       # Number of integer alu accesses
system.cpu.iq.fp_alu_accesses                 1323914                       # Number of floating point alu accesses
system.cpu.iq.vec_alu_accesses                      0                       # Number of vector alu accesses
system.cpu.iew.lsq.thread0.forwLoads                0                       # Number of loads that had data forwarded from stores
system.cpu.iew.lsq.thread0.invAddrLoads             0                       # Number of loads ignored due to an invalid address
system.cpu.iew.lsq.thread0.squashedLoads        21633                       # Number of loads squashed
system.cpu.iew.lsq.thread0.ignoredResponses            0                       # Number of memory responses ignored because the instruction is squashed
system.cpu.iew.lsq.thread0.memOrderViolation            2                       # Number of memory ordering violations
system.cpu.iew.lsq.thread0.squashedStores          119                       # Number of stores squashed
system.cpu.iew.lsq.thread0.invAddrSwpfs             0                       # Number of software prefetches ignored due to an invalid address
system.cpu.iew.lsq.thread0.blockedLoads             0                       # Number of blocked loads due to partial load-store forwarding
system.cpu.iew.lsq.thread0.rescheduledLoads            0                       # Number of loads that were rescheduled
system.cpu.iew.lsq.thread0.cacheBlocked             0                       # Number of times an access to memory failed due to the cache being blocked
system.cpu.iew.iewIdleCycles                        0                       # Number of cycles IEW is idle
system.cpu.iew.iewSquashCycles                 725262                       # Number of cycles IEW is squashing
system.cpu.iew.iewBlockCycles                  482247                       # Number of cycles IEW is blocking
system.cpu.iew.iewUnblockCycles                   194                       # Number of cycles IEW is unblocking
system.cpu.iew.iewDispatchedInsts            44506400                       # Number of instructions dispatched to IQ
system.cpu.iew.iewDispSquashedInsts            354177                       # Number of squashed instructions skipped by dispatch
system.cpu.iew.iewDispLoadInsts               1166353                       # Number of dispatched load instructions
system.cpu.iew.iewDispStoreInsts              1036864                       # Number of dispatched store instructions
system.cpu.iew.iewDispNonSpecInsts              99137                       # Number of dispatched non-speculative instructions
system.cpu.iew.iewIQFullEvents                      2                       # Number of times the IQ has become full, causing a stall
system.cpu.iew.iewLSQFullEvents                   189                       # Number of times the LSQ has become full, causing a stall
system.cpu.iew.memOrderViolationEvents              2                       # Number of memory order violations
system.cpu.iew.predictedTakenIncorrect         381572                       # Number of branches that were predicted taken incorrectly
system.cpu.iew.predictedNotTakenIncorrect       349184                       # Number of branches that were predicted not taken incorrectly
system.cpu.iew.branchMispredicts               730756                       # Number of branch mispredicts detected at execute
system.cpu.iew.iewExecutedInsts              43230201                       # Number of executed instructions
system.cpu.iew.iewExecLoadInsts               1157764                       # Number of load instructions executed
system.cpu.iew.iewExecSquashedInsts            235362                       # Number of squashed instructions skipped in execute
system.cpu.iew.exec_swp                             0                       # number of swp insts executed
system.cpu.iew.exec_nop                        929456                       # number of nop insts executed
system.cpu.iew.exec_refs                      2194615                       # number of memory reference insts executed
system.cpu.iew.exec_branches                  4606621                       # Number of branches executed
system.cpu.iew.exec_stores                    1036851                       # Number of stores executed
system.cpu.iew.exec_rate                     0.482352                       # Inst execution rate
system.cpu.iew.wb_sent                       43229874                       # cumulative count of insts sent to commit
system.cpu.iew.wb_count                      43229794                       # cumulative count of insts written-back
system.cpu.iew.wb_producers                   9213146                       # num instructions producing a value
system.cpu.iew.wb_consumers                   9324360                       # num instructions consuming a value
system.cpu.iew.wb_rate                       0.482348                       # insts written-back per cycle
system.cpu.iew.wb_fanout                     0.988073                       # average fanout of values written-back
system.cpu.commit.commitSquashedInsts          771729                       # The number of squashed insts skipped by commit
system.cpu.commit.commitNonSpecStalls           99154                       # The number of times commit has been forced to stall to communicate backwards
system.cpu.commit.branchMispredicts            725204                       # The number of times a branch was mispredicted
system.cpu.commit.committed_per_cycle::samples     87899109                       # Number of insts commited each cycle
system.cpu.commit.committed_per_cycle::mean     0.497555                       # Number of insts commited each cycle
system.cpu.commit.committed_per_cycle::stdev     0.536253                       # Number of insts commited each cycle
system.cpu.commit.committed_per_cycle::underflows            0      0.00%      0.00% # Number of insts commited each cycle
system.cpu.commit.committed_per_cycle::0     45815792     52.12%     52.12% # Number of insts commited each cycle
system.cpu.commit.committed_per_cycle::1     40432009     46.00%     98.12% # Number of insts commited each cycle
system.cpu.commit.committed_per_cycle::2      1651308      1.88%    100.00% # Number of insts commited each cycle
system.cpu.commit.committed_per_cycle::overflows            0      0.00%    100.00% # Number of insts commited each cycle
system.cpu.commit.committed_per_cycle::min_value            0                       # Number of insts commited each cycle
system.cpu.commit.committed_per_cycle::max_value            2                       # Number of insts commited each cycle
system.cpu.commit.committed_per_cycle::total     87899109                       # Number of insts commited each cycle
system.cpu.commit.committedInsts             43734625                       # Number of instructions committed
system.cpu.commit.committedOps               43734625                       # Number of ops (including micro ops) committed
system.cpu.commit.swp_count                         0                       # Number of s/w prefetches committed
system.cpu.commit.refs                        2181465                       # Number of memory references committed
system.cpu.commit.loads                       1144720                       # Number of loads committed
system.cpu.commit.membars                          16                       # Number of memory barriers committed
system.cpu.commit.branches                    4508235                       # Number of branches committed
system.cpu.commit.vec_insts                         0                       # Number of committed Vector instructions.
system.cpu.commit.fp_insts                    1261108                       # Number of committed floating point instructions.
system.cpu.commit.int_insts                  41461874                       # Number of committed integer instructions.
system.cpu.commit.function_calls               299013                       # Number of function calls committed.
system.cpu.commit.op_class_0::No_OpClass       918943      2.10%      2.10% # Class of committed instruction
system.cpu.commit.op_class_0::IntAlu         39357983     89.99%     92.09% # Class of committed instruction
system.cpu.commit.op_class_0::IntMult          384355      0.88%     92.97% # Class of committed instruction
system.cpu.commit.op_class_0::IntDiv                0      0.00%     92.97% # Class of committed instruction
system.cpu.commit.op_class_0::FloatAdd         543854      1.24%     94.22% # Class of committed instruction
system.cpu.commit.op_class_0::FloatCmp          91476      0.21%     94.43% # Class of committed instruction
system.cpu.commit.op_class_0::FloatCvt          81645      0.19%     94.61% # Class of committed instruction
system.cpu.commit.op_class_0::FloatMult        157433      0.36%     94.97% # Class of committed instruction
system.cpu.commit.op_class_0::FloatMultAcc            0      0.00%     94.97% # Class of committed instruction
system.cpu.commit.op_class_0::FloatDiv          13093      0.03%     95.00% # Class of committed instruction
system.cpu.commit.op_class_0::FloatMisc             0      0.00%     95.00% # Class of committed instruction
system.cpu.commit.op_class_0::FloatSqrt          4361      0.01%     95.01% # Class of committed instruction
system.cpu.commit.op_class_0::SimdAdd               0      0.00%     95.01% # Class of committed instruction
system.cpu.commit.op_class_0::SimdAddAcc            0      0.00%     95.01% # Class of committed instruction
system.cpu.commit.op_class_0::SimdAlu               0      0.00%     95.01% # Class of committed instruction
system.cpu.commit.op_class_0::SimdCmp               0      0.00%     95.01% # Class of committed instruction
system.cpu.commit.op_class_0::SimdCvt               0      0.00%     95.01% # Class of committed instruction
system.cpu.commit.op_class_0::SimdMisc              0      0.00%     95.01% # Class of committed instruction
system.cpu.commit.op_class_0::SimdMult              0      0.00%     95.01% # Class of committed instruction
system.cpu.commit.op_class_0::SimdMultAcc            0      0.00%     95.01% # Class of committed instruction
system.cpu.commit.op_class_0::SimdShift             0      0.00%     95.01% # Class of committed instruction
system.cpu.commit.op_class_0::SimdShiftAcc            0      0.00%     95.01% # Class of committed instruction
system.cpu.commit.op_class_0::SimdSqrt              0      0.00%     95.01% # Class of committed instruction
system.cpu.commit.op_class_0::SimdFloatAdd            0      0.00%     95.01% # Class of committed instruction
system.cpu.commit.op_class_0::SimdFloatAlu            0      0.00%     95.01% # Class of committed instruction
system.cpu.commit.op_class_0::SimdFloatCmp            0      0.00%     95.01% # Class of committed instruction
system.cpu.commit.op_class_0::SimdFloatCvt            0      0.00%     95.01% # Class of committed instruction
system.cpu.commit.op_class_0::SimdFloatDiv            0      0.00%     95.01% # Class of committed instruction
system.cpu.commit.op_class_0::SimdFloatMisc            0      0.00%     95.01% # Class of committed instruction
system.cpu.commit.op_class_0::SimdFloatMult            0      0.00%     95.01% # Class of committed instruction
system.cpu.commit.op_class_0::SimdFloatMultAcc            0      0.00%     95.01% # Class of committed instruction
system.cpu.commit.op_class_0::SimdFloatSqrt            0      0.00%     95.01% # Class of committed instruction
system.cpu.commit.op_class_0::SimdAes               0      0.00%     95.01% # Class of committed instruction
system.cpu.commit.op_class_0::SimdAesMix            0      0.00%     95.01% # Class of committed instruction
system.cpu.commit.op_class_0::SimdSha1Hash            0      0.00%     95.01% # Class of committed instruction
system.cpu.commit.op_class_0::SimdSha1Hash2            0      0.00%     95.01% # Class of committed instruction
system.cpu.commit.op_class_0::SimdSha256Hash            0      0.00%     95.01% # Class of committed instruction
system.cpu.commit.op_class_0::SimdSha256Hash2            0      0.00%     95.01% # Class of committed instruction
system.cpu.commit.op_class_0::SimdShaSigma2            0      0.00%     95.01% # Class of committed instruction
system.cpu.commit.op_class_0::SimdShaSigma3            0      0.00%     95.01% # Class of committed instruction
system.cpu.commit.op_class_0::MemRead          873664      2.00%     97.01% # Class of committed instruction
system.cpu.commit.op_class_0::MemWrite         938572      2.15%     99.16% # Class of committed instruction
system.cpu.commit.op_class_0::FloatMemRead       271072      0.62%     99.78% # Class of committed instruction
system.cpu.commit.op_class_0::FloatMemWrite        98174      0.22%    100.00% # Class of committed instruction
system.cpu.commit.op_class_0::IprAccess             0      0.00%    100.00% # Class of committed instruction
system.cpu.commit.op_class_0::InstPrefetch            0      0.00%    100.00% # Class of committed instruction
system.cpu.commit.op_class_0::total          43734625                       # Class of committed instruction
system.cpu.commit.bw_lim_events               1651308                       # number cycles where commit BW limit reached
system.cpu.rob.rob_reads                    130753440                       # The number of ROB reads
system.cpu.rob.rob_writes                    89754333                       # The number of ROB writes
system.cpu.timesIdled                           41724                       # Number of times that the entire CPU went into an idle state and unscheduled itself
system.cpu.idleCycles                          982981                       # Total number of cycles that the CPU has spent unscheduled due to idling
system.cpu.committedInsts                    42815689                       # Number of Instructions Simulated
system.cpu.committedOps                      42815689                       # Number of Ops (including micro ops) Simulated
system.cpu.cpi                               2.093245                       # CPI: Cycles Per Instruction
system.cpu.cpi_total                         2.093245                       # CPI: Total CPI of All Threads
system.cpu.ipc                               0.477727                       # IPC: Instructions Per Cycle
system.cpu.ipc_total                         0.477727                       # IPC: Total IPC of All Threads
system.cpu.int_regfile_reads                 68771039                       # number of integer regfile reads
system.cpu.int_regfile_writes                36952952                       # number of integer regfile writes
system.cpu.fp_regfile_reads                   1693744                       # number of floating regfile reads
system.cpu.fp_regfile_writes                  1035589                       # number of floating regfile writes
system.cpu.misc_regfile_reads                  403143                       # number of misc regfile reads
system.cpu.misc_regfile_writes                     36                       # number of misc regfile writes
system.cpu.dcache.tags.pwrStateResidencyTicks::UNDEFINED  44811817500                       # Cumulative time (in ticks) in various power states
system.cpu.dcache.tags.tagsinuse           895.268732                       # Cycle average of tags in use
system.cpu.dcache.tags.total_refs              150687                       # Total number of references to valid blocks.
system.cpu.dcache.tags.sampled_refs               769                       # Sample count of references to valid blocks.
system.cpu.dcache.tags.avg_refs            195.951886                       # Average number of references to valid blocks.
system.cpu.dcache.tags.warmup_cycle            164000                       # Cycle when the warmup percentage was hit.
system.cpu.dcache.tags.occ_blocks::.cpu.data   895.268732                       # Average occupied blocks per requestor
system.cpu.dcache.tags.occ_percent::.cpu.data     0.874286                       # Average percentage of cache occupancy
system.cpu.dcache.tags.occ_percent::total     0.874286                       # Average percentage of cache occupancy
system.cpu.dcache.tags.occ_task_id_blocks::1024         1003                       # Occupied blocks per task id
system.cpu.dcache.tags.age_task_id_blocks_1024::0           21                       # Occupied blocks per task id
system.cpu.dcache.tags.age_task_id_blocks_1024::2            1                       # Occupied blocks per task id
[...]
system.cpu.dcache.overall_mshr_misses::.cpu.data         1770                       # number of overall MSHR misses
system.cpu.dcache.overall_mshr_misses::total         1770                       # number of overall MSHR misses
system.cpu.dcache.ReadReq_mshr_miss_latency::.cpu.data    426304500                       # number of ReadReq MSHR miss cycles
system.cpu.dcache.ReadReq_mshr_miss_latency::total    426304500                       # number of ReadReq MSHR miss cycles
system.cpu.dcache.WriteReq_mshr_miss_latency::.cpu.data      9773500                       # number of WriteReq MSHR miss cycles
system.cpu.dcache.WriteReq_mshr_miss_latency::total      9773500                       # number of WriteReq MSHR miss cycles
system.cpu.dcache.LoadLockedReq_mshr_miss_latency::.cpu.data       132000                       # number of LoadLockedReq MSHR miss cycles
system.cpu.dcache.LoadLockedReq_mshr_miss_latency::total       132000                       # number of LoadLockedReq MSHR miss cycles
system.cpu.dcache.demand_mshr_miss_latency::.cpu.data    436078000                       # number of demand (read+write) MSHR miss cycles
system.cpu.dcache.demand_mshr_miss_latency::total    436078000                       # number of demand (read+write) MSHR miss cycles
system.cpu.dcache.overall_mshr_miss_latency::.cpu.data    436078000                       # number of overall MSHR miss cycles
system.cpu.dcache.overall_mshr_miss_latency::total    436078000                       # number of overall MSHR miss cycles
system.cpu.dcache.ReadReq_mshr_miss_rate::.cpu.data     0.001400                       # mshr miss rate for ReadReq accesses
system.cpu.dcache.ReadReq_mshr_miss_rate::total     0.001400                       # mshr miss rate for ReadReq accesses
system.cpu.dcache.WriteReq_mshr_miss_rate::.cpu.data     0.000144                       # mshr miss rate for WriteReq accesses
system.cpu.dcache.WriteReq_mshr_miss_rate::total     0.000144                       # mshr miss rate for WriteReq accesses
system.cpu.dcache.LoadLockedReq_mshr_miss_rate::.cpu.data     0.125000                       # mshr miss rate for LoadLockedReq accesses
system.cpu.dcache.LoadLockedReq_mshr_miss_rate::total     0.125000                       # mshr miss rate for LoadLockedReq accesses
system.cpu.dcache.demand_mshr_miss_rate::.cpu.data     0.000807                       # mshr miss rate for demand accesses
system.cpu.dcache.demand_mshr_miss_rate::total     0.000807                       # mshr miss rate for demand accesses
system.cpu.dcache.overall_mshr_miss_rate::.cpu.data     0.000807                       # mshr miss rate for overall accesses
system.cpu.dcache.overall_mshr_miss_rate::total     0.000807                       # mshr miss rate for overall accesses
system.cpu.dcache.ReadReq_avg_mshr_miss_latency::.cpu.data 262988.587292                       # average ReadReq mshr miss latency
system.cpu.dcache.ReadReq_avg_mshr_miss_latency::total 262988.587292                       # average ReadReq mshr miss latency
system.cpu.dcache.WriteReq_avg_mshr_miss_latency::.cpu.data 65593.959732                       # average WriteReq mshr miss latency
system.cpu.dcache.WriteReq_avg_mshr_miss_latency::total 65593.959732                       # average WriteReq mshr miss latency
system.cpu.dcache.LoadLockedReq_avg_mshr_miss_latency::.cpu.data        66000                       # average LoadLockedReq mshr miss latency
system.cpu.dcache.LoadLockedReq_avg_mshr_miss_latency::total        66000                       # average LoadLockedReq mshr miss latency
system.cpu.dcache.demand_avg_mshr_miss_latency::.cpu.data 246371.751412                       # average overall mshr miss latency
system.cpu.dcache.demand_avg_mshr_miss_latency::total 246371.751412                       # average overall mshr miss latency
system.cpu.dcache.overall_avg_mshr_miss_latency::.cpu.data 246371.751412                       # average overall mshr miss latency
system.cpu.dcache.overall_avg_mshr_miss_latency::total 246371.751412                       # average overall mshr miss latency
system.cpu.dcache.replacements                    769                       # number of replacements
system.cpu.icache.tags.pwrStateResidencyTicks::UNDEFINED  44811817500                       # Cumulative time (in ticks) in various power states
system.cpu.icache.tags.tagsinuse           471.799887                       # Cycle average of tags in use
system.cpu.icache.tags.total_refs             3505734                       # Total number of references to valid blocks.
system.cpu.icache.tags.sampled_refs             66182                       # Sample count of references to valid blocks.
system.cpu.icache.tags.avg_refs             52.971110                       # Average number of references to valid blocks.
system.cpu.icache.tags.warmup_cycle             77000                       # Cycle when the warmup percentage was hit.
system.cpu.icache.tags.occ_blocks::.cpu.inst   471.799887                       # Average occupied blocks per requestor
system.cpu.icache.tags.occ_percent::.cpu.inst     0.921484                       # Average percentage of cache occupancy
system.cpu.icache.tags.occ_percent::total     0.921484                       # Average percentage of cache occupancy
system.cpu.icache.tags.occ_task_id_blocks::1024          484                       # Occupied blocks per task id
system.cpu.icache.tags.age_task_id_blocks_1024::0           76                       # Occupied blocks per task id
system.cpu.icache.tags.age_task_id_blocks_1024::2            1                       # Occupied blocks per task id
system.cpu.icache.tags.age_task_id_blocks_1024::3           35                       # Occupied blocks per task id
system.cpu.icache.tags.age_task_id_blocks_1024::4          372                       # Occupied blocks per task id
system.cpu.icache.tags.occ_task_id_percent::1024     0.945312                       # Percentage of cache occupancy per task id
system.cpu.icache.tags.tag_accesses          59119406                       # Number of tag accesses
system.cpu.icache.tags.data_accesses         59119406                       # Number of data accesses
system.cpu.icache.pwrStateResidencyTicks::UNDEFINED  44811817500                       # Cumulative time (in ticks) in various power states
system.cpu.icache.ReadReq_hits::.cpu.inst     29455372                       # number of ReadReq hits
system.cpu.icache.ReadReq_hits::total        29455372                       # number of ReadReq hits
system.cpu.icache.demand_hits::.cpu.inst     29455372                       # number of demand (read+write) hits
system.cpu.icache.demand_hits::total         29455372                       # number of demand (read+write) hits
system.cpu.icache.overall_hits::.cpu.inst     29455372                       # number of overall hits
system.cpu.icache.overall_hits::total        29455372                       # number of overall hits
system.cpu.icache.ReadReq_misses::.cpu.inst        70998                       # number of ReadReq misses
system.cpu.icache.ReadReq_misses::total         70998                       # number of ReadReq misses
system.cpu.icache.demand_misses::.cpu.inst        70998                       # number of demand (read+write) misses
system.cpu.icache.demand_misses::total          70998                       # number of demand (read+write) misses
system.cpu.icache.overall_misses::.cpu.inst        70998                       # number of overall misses
system.cpu.icache.overall_misses::total         70998                       # number of overall misses
system.cpu.icache.ReadReq_miss_latency::.cpu.inst   1703656000                       # number of ReadReq miss cycles
system.cpu.icache.ReadReq_miss_latency::total   1703656000                       # number of ReadReq miss cycles
system.cpu.icache.demand_miss_latency::.cpu.inst   1703656000                       # number of demand (read+write) miss cycles
system.cpu.icache.demand_miss_latency::total   1703656000                       # number of demand (read+write) miss cycles
system.cpu.icache.overall_miss_latency::.cpu.inst   1703656000                       # number of overall miss cycles
system.cpu.icache.overall_miss_latency::total   1703656000                       # number of overall miss cycles
system.cpu.icache.ReadReq_accesses::.cpu.inst     29526370                       # number of ReadReq accesses(hits+misses)
system.cpu.icache.ReadReq_accesses::total     29526370                       # number of ReadReq accesses(hits+misses)
system.cpu.icache.demand_accesses::.cpu.inst     29526370                       # number of demand (read+write) accesses
system.cpu.icache.demand_accesses::total     29526370                       # number of demand (read+write) accesses
system.cpu.icache.overall_accesses::.cpu.inst     29526370                       # number of overall (read+write) accesses
system.cpu.icache.overall_accesses::total     29526370                       # number of overall (read+write) accesses
system.cpu.icache.ReadReq_miss_rate::.cpu.inst     0.002405                       # miss rate for ReadReq accesses
system.cpu.icache.ReadReq_miss_rate::total     0.002405                       # miss rate for ReadReq accesses
system.cpu.icache.demand_miss_rate::.cpu.inst     0.002405                       # miss rate for demand accesses
system.cpu.icache.demand_miss_rate::total     0.002405                       # miss rate for demand accesses
system.cpu.icache.overall_miss_rate::.cpu.inst     0.002405                       # miss rate for overall accesses
system.cpu.icache.overall_miss_rate::total     0.002405                       # miss rate for overall accesses
system.cpu.icache.ReadReq_avg_miss_latency::.cpu.inst 23995.830868                       # average ReadReq miss latency
system.cpu.icache.ReadReq_avg_miss_latency::total 23995.830868                       # average ReadReq miss latency
system.cpu.icache.demand_avg_miss_latency::.cpu.inst 23995.830868                       # average overall miss latency
system.cpu.icache.demand_avg_miss_latency::total 23995.830868                       # average overall miss latency
system.cpu.icache.overall_avg_miss_latency::.cpu.inst 23995.830868                       # average overall miss latency
system.cpu.icache.overall_avg_miss_latency::total 23995.830868                       # average overall miss latency
system.cpu.icache.blocked_cycles::no_mshrs            0                       # number of cycles access was blocked
system.cpu.icache.blocked_cycles::no_targets            0                       # number of cycles access was blocked
system.cpu.icache.blocked::no_mshrs                 0                       # number of cycles access was blocked
system.cpu.icache.blocked::no_targets               0                       # number of cycles access was blocked
system.cpu.icache.avg_blocked_cycles::no_mshrs          nan                       # average number of cycles each access was blocked
system.cpu.icache.avg_blocked_cycles::no_targets          nan                       # average number of cycles each access was blocked
system.cpu.icache.writebacks::.writebacks        66182                       # number of writebacks
system.cpu.icache.writebacks::total             66182                       # number of writebacks
system.cpu.icache.ReadReq_mshr_hits::.cpu.inst         4332                       # number of ReadReq MSHR hits
system.cpu.icache.ReadReq_mshr_hits::total         4332                       # number of ReadReq MSHR hits
system.cpu.icache.demand_mshr_hits::.cpu.inst         4332                       # number of demand (read+write) MSHR hits
system.cpu.icache.demand_mshr_hits::total         4332                       # number of demand (read+write) MSHR hits
system.cpu.icache.overall_mshr_hits::.cpu.inst         4332                       # number of overall MSHR hits
system.cpu.icache.overall_mshr_hits::total         4332                       # number of overall MSHR hits
system.cpu.icache.ReadReq_mshr_misses::.cpu.inst        66666                       # number of ReadReq MSHR misses
system.cpu.icache.ReadReq_mshr_misses::total        66666                       # number of ReadReq MSHR misses
system.cpu.icache.demand_mshr_misses::.cpu.inst        66666                       # number of demand (read+write) MSHR misses
system.cpu.icache.demand_mshr_misses::total        66666                       # number of demand (read+write) MSHR misses
system.cpu.icache.overall_mshr_misses::.cpu.inst        66666                       # number of overall MSHR misses
system.cpu.icache.overall_mshr_misses::total        66666                       # number of overall MSHR misses
system.cpu.icache.ReadReq_mshr_miss_latency::.cpu.inst   1549089000                       # number of ReadReq MSHR miss cycles
system.cpu.icache.ReadReq_mshr_miss_latency::total   1549089000                       # number of ReadReq MSHR miss cycles
system.cpu.icache.demand_mshr_miss_latency::.cpu.inst   1549089000                       # number of demand (read+write) MSHR miss cycles
system.cpu.icache.demand_mshr_miss_latency::total   1549089000                       # number of demand (read+write) MSHR miss cycles
system.cpu.icache.overall_mshr_miss_latency::.cpu.inst   1549089000                       # number of overall MSHR miss cycles
system.cpu.icache.overall_mshr_miss_latency::total   1549089000                       # number of overall MSHR miss cycles
system.cpu.icache.ReadReq_mshr_miss_rate::.cpu.inst     0.002258                       # mshr miss rate for ReadReq accesses
system.cpu.icache.ReadReq_mshr_miss_rate::total     0.002258                       # mshr miss rate for ReadReq accesses
system.cpu.icache.demand_mshr_miss_rate::.cpu.inst     0.002258                       # mshr miss rate for demand accesses
system.cpu.icache.demand_mshr_miss_rate::total     0.002258                       # mshr miss rate for demand accesses
system.cpu.icache.overall_mshr_miss_rate::.cpu.inst     0.002258                       # mshr miss rate for overall accesses
system.cpu.icache.overall_mshr_miss_rate::total     0.002258                       # mshr miss rate for overall accesses
system.cpu.icache.ReadReq_avg_mshr_miss_latency::.cpu.inst 23236.567366                       # average ReadReq mshr miss latency
system.cpu.icache.ReadReq_avg_mshr_miss_latency::total 23236.567366                       # average ReadReq mshr miss latency
system.cpu.icache.demand_avg_mshr_miss_latency::.cpu.inst 23236.567366                       # average overall mshr miss latency
system.cpu.icache.demand_avg_mshr_miss_latency::total 23236.567366                       # average overall mshr miss latency
system.cpu.icache.overall_avg_mshr_miss_latency::.cpu.inst 23236.567366                       # average overall mshr miss latency
system.cpu.icache.overall_avg_mshr_miss_latency::total 23236.567366                       # average overall mshr miss latency
system.cpu.icache.replacements                  66182                       # number of replacements
system.membus.snoop_filter.tot_requests        135389                       # Total number of requests made to the snoop filter.
system.membus.snoop_filter.hit_single_requests        66952                       # Number of requests hitting in the snoop filter with a single holder of the requested data.
system.membus.snoop_filter.hit_multi_requests            0                       # Number of requests hitting in the snoop filter with multiple (>1) holders of the requested data.
system.membus.snoop_filter.tot_snoops               0                       # Total number of snoops made to the snoop filter.
system.membus.snoop_filter.hit_single_snoops            0                       # Number of snoops hitting in the snoop filter with a single holder of the requested data.
system.membus.snoop_filter.hit_multi_snoops            0                       # Number of snoops hitting in the snoop filter with multiple (>1) holders of the requested data.
system.membus.pwrStateResidencyTicks::UNDEFINED  44811817500                       # Cumulative time (in ticks) in various power states
system.membus.trans_dist::ReadResp              68289                       # Transaction distribution
system.membus.trans_dist::WritebackDirty          163                       # Transaction distribution
system.membus.trans_dist::WritebackClean        66182                       # Transaction distribution
system.membus.trans_dist::CleanEvict              606                       # Transaction distribution
system.membus.trans_dist::ReadExReq               149                       # Transaction distribution
system.membus.trans_dist::ReadExResp              149                       # Transaction distribution
system.membus.trans_dist::ReadCleanReq          66666                       # Transaction distribution
system.membus.trans_dist::ReadSharedReq          1623                       # Transaction distribution
system.membus.pkt_count_system.cpu.icache.mem_side::system.mem_ctrls.port       199514                       # Packet count per connected master and slave (bytes)
system.membus.pkt_count_system.cpu.dcache.mem_side::system.mem_ctrls.port         4313                       # Packet count per connected master and slave (bytes)
system.membus.pkt_count::total                 203827                       # Packet count per connected master and slave (bytes)
system.membus.pkt_size_system.cpu.icache.mem_side::system.mem_ctrls.port      8502272                       # Cumulative packet size per connected master and slave (bytes)
system.membus.pkt_size_system.cpu.dcache.mem_side::system.mem_ctrls.port       123840                       # Cumulative packet size per connected master and slave (bytes)
system.membus.pkt_size::total                 8626112                       # Cumulative packet size per connected master and slave (bytes)
system.membus.snoops                                0                       # Total snoops (count)
system.membus.snoopTraffic                          0                       # Total snoop traffic (bytes)
system.membus.snoop_fanout::samples             68438                       # Request fanout histogram
system.membus.snoop_fanout::mean             0.000015                       # Request fanout histogram
system.membus.snoop_fanout::stdev            0.003823                       # Request fanout histogram
system.membus.snoop_fanout::underflows              0      0.00%      0.00% # Request fanout histogram
system.membus.snoop_fanout::0                   68437    100.00%    100.00% # Request fanout histogram
system.membus.snoop_fanout::1                       1      0.00%    100.00% # Request fanout histogram
system.membus.snoop_fanout::2                       0      0.00%    100.00% # Request fanout histogram
system.membus.snoop_fanout::overflows               0      0.00%    100.00% # Request fanout histogram
system.membus.snoop_fanout::min_value               0                       # Request fanout histogram
system.membus.snoop_fanout::max_value               1                       # Request fanout histogram
system.membus.snoop_fanout::total               68438                       # Request fanout histogram
system.membus.reqLayer0.occupancy           408646500                       # Layer occupancy (ticks)
system.membus.reqLayer0.utilization               0.9                       # Layer utilization (%)
system.membus.respLayer1.occupancy          333924998                       # Layer occupancy (ticks)
system.membus.respLayer1.utilization              0.7                       # Layer utilization (%)
system.membus.respLayer2.occupancy            9473750                       # Layer occupancy (ticks)
system.membus.respLayer2.utilization              0.0                       # Layer utilization (%)

---------- End Simulation Statistics   ----------
